data/ENWL/enwl_phase_to_neutral_embedded/network_10/Feeder_3/Loads.txt
! Imported from Loads.txt, with modified neutral terminal
! ------------------------------------------------------------------------
New Load.LOAD1 Phases=1 Bus1=335.1 kV=0.23 kW=1.968  PF=0.95
New Load.LOAD2 Phases=1 Bus1=337.2 kV=0.23 kW=0.306  PF=0.95
New Load.LOAD3 Phases=1 Bus1=343.3 kV=0.23 kW=2.94  PF=0.95
New Load.LOAD4 Phases=1 Bus1=346.1 kV=0.23 kW=0.324  PF=0.95
New Load.LOAD5 Phases=1 Bus1=348.2 kV=0.23 kW=1.332  PF=0.95
New Load.LOAD6 Phases=1 Bus1=349.3 kV=0.23 kW=3.0540000000000003  PF=0.95
New Load.LOAD7 Phases=1 Bus1=357.1 kV=0.23 kW=2.0580000000000003  PF=0.95
New Load.LOAD8 Phases=1 Bus1=359.2 kV=0.23 kW=0.29400000000000004  PF=0.95
New Load.LOAD9 Phases=1 Bus1=363.3 kV=0.23 kW=0.312  PF=0.95
New Load.LOAD10 Phases=1 Bus1=365.1 kV=0.23 kW=0.27  PF=0.95
New Load.LOAD11 Phases=1 Bus1=368.2 kV=0.23 kW=0.33  PF=0.95
New Load.LOAD12 Phases=1 Bus1=391.3 kV=0.23 kW=0.33  PF=0.95
New Load.LOAD13 Phases=1 Bus1=393.1 kV=0.23 kW=0.246  PF=0.95
New Load.LOAD14 Phases=1 Bus1=397.2 kV=0.23 kW=2.04  PF=0.95
New Load.LOAD15 Phases=1 Bus1=401.3 kV=0.23 kW=0.8280000000000001  PF=0.95
! ------------------------------------------------------------------------